STAAD SPACE
START JOB INFORMATION
ENGINEER DATE 21.10.2015
END JOB INFORMATION
INPUT WIDTH 79
SET Z UP
SET NL 500
UNIT METER KN
JOINT COORDINATES
1 0 0 0; 2 0 0 1.7; 3 0 0 2; 4 0 0 6; 5 0 0 10; 6 0 6 0; 7 0 6 1.7; 8 0 6 2;
9 0 6 6; 10 0 6 10; 11 6 0 0; 12 6 0 1.7; 13 6 0 2; 14 6 0 6; 15 6 0 10;
16 6 6 0; 17 6 6 1.7; 18 6 6 2; 19 6 6 6; 20 6 6 10; 21 15 0 0; 22 15 0 1.7;
23 15 0 2; 24 15 0 6; 25 15 0 10; 26 15 6 0; 27 15 6 1.7; 28 15 6 2; 29 15 6 6;
30 15 6 10; 31 24 0 0; 32 24 0 1.7; 33 24 0 2; 34 24 0 6; 35 24 0 10;
36 24 6 0; 37 24 6 1.7; 38 24 6 2; 39 24 6 6; 40 24 6 10; 41 2 0 6; 42 2 6 6;
43 4 0 6; 44 4 6 6; 45 9 0 6; 46 9 6 6; 47 18 0 6; 48 18 6 6; 49 12 0 6;
50 12 6 6; 51 21 0 6; 52 21 6 6; 53 24 3 6; 54 15 3 6; 55 6 3 6; 56 0 3 6;
57 2 3 6; 58 4 3 6; 59 18 3 6; 60 9 3 6; 61 21 3 6; 62 12 3 6; 63 2 4 6;
64 4 4 6; 65 2 2 6; 66 4 2 6; 67 2 0 10; 68 2 6 10; 69 4 0 10; 70 4 6 10;
71 9 0 10; 72 9 6 10; 73 18 0 10; 74 18 6 10; 75 12 0 10; 76 12 6 10;
77 21 0 10; 78 21 6 10; 79 24 3 10; 80 15 3 10; 81 6 3 10; 82 0 3 10;
83 2 3 10; 84 4 3 10; 85 18 3 10; 86 9 3 10; 87 21 3 10; 88 12 3 10; 89 2 4 10;
90 4 4 10; 91 2 2 10; 92 4 2 10; 93 0 0 15; 94 0 6 15; 95 6 0 15; 96 6 6 15;
97 2 0 15; 98 4 0 15; 99 2 6 15; 100 4 6 15; 101 6 2 15; 102 6 4 15;
103 0 2 15; 104 0 4 15; 105 4 4 15; 106 2 4 15; 107 4 2 15; 108 2 2 15;
109 3.4 4 15; 110 3.4 2 15; 111 4 3.4 15; 112 2 3.4 15; 113 4 2.6 15;
114 2 2.6 15; 115 2.6 4 15; 116 2.6 2 15; 117 0 0 23; 118 0 6 23; 119 6 0 23;
120 6 6 23; 121 2 0 23; 122 4 0 23; 123 2 6 23; 124 4 6 23; 125 6 2 23;
126 6 4 23; 127 0 2 23; 128 0 4 23; 129 4 4 23; 130 2 4 23; 131 4 2 23;
# ... 5 like lines cut
*
SUPPORTS
1 FIXED
6 FIXED
11 FIXED
16 FIXED
21 FIXED
26 FIXED
31 FIXED
36 FIXED
MEMBER INCIDENCES
1 1 2; 2 2 3; 3 3 4; 4 4 5; 5 6 7; 6 7 8; 7 8 9; 8 9 10; 9 11 12; 10 12 13;
11 13 14; 12 14 15; 13 16 17; 14 17 18; 15 18 19; 16 19 20; 17 21 22; 18 22 23;
19 23 24; 20 24 25; 21 26 27; 22 27 28; 23 28 29; 24 29 30; 25 31 32; 26 32 33;
27 33 34; 28 34 35; 29 36 37; 30 37 38; 31 38 39; 32 39 40; 33 4 41; 34 41 43;
35 43 14; 36 14 45; 37 45 49; 38 49 24; 39 24 47; 40 47 51; 41 51 34; 42 9 42;
43 42 44; 44 44 19; 45 19 46; 46 46 50; 47 50 29; 48 29 48; 49 48 52; 50 52 39;
51 47 59; 52 59 48; 53 45 60; 54 60 46; 55 51 61; 56 61 52; 57 49 62; 58 62 50;
59 56 57; 60 58 55; 61 55 60; 62 60 62; 63 62 54; 64 54 59; 65 59 61; 66 61 53;
67 63 64; 68 65 66; 69 41 65; 70 65 57; 71 57 63; 72 63 42; 73 43 66; 74 66 58;
75 58 64; 76 64 44; 77 4 57; 78 9 57; 79 58 19; 80 58 14; 81 14 60; 82 19 60;
83 62 29; 84 62 24; 85 24 59; 86 29 59; 87 61 39; 88 61 34; 89 5 67; 90 67 69;
91 69 15; 92 15 71; 93 71 75; 94 75 25; 95 25 73; 96 73 77; 97 77 35; 98 10 68;
99 68 70; 100 70 20; 101 20 72; 102 72 76; 103 76 30; 104 30 74; 105 74 78;
106 78 40; 107 73 85; 108 85 74; 109 71 86; 110 86 72; 111 77 87; 112 87 78;
113 75 88; 114 88 76; 115 82 83; 116 84 81; 117 81 86; 118 86 88; 119 88 80;
120 80 85; 121 85 87; 122 87 79; 123 89 90; 124 91 92; 125 67 91; 126 91 83;
127 83 89; 128 89 68; 129 69 92; 130 92 84; 131 84 90; 132 90 70; 133 5 83;
134 10 83; 135 84 20; 136 84 15; 137 15 86; 138 20 86; 139 88 30; 140 88 25;
141 25 85; 142 30 85; 143 87 40; 144 87 35; 145 93 97; 146 97 98; 147 98 95;
148 94 99; 149 99 100; 150 100 96; 151 95 101; 152 101 102; 153 102 96;
# ... 24 like lines cut
* RUSSIAN STEEL
DEFINE MATERIAL START
ISOTROPIC 1:STEEL_RUS
E 2.0601e+008
DENSITY 77.0085
POISSON 0.3
ALPHA 1.2e-005
* CONCRETE STEEL
ISOTROPIC 2:B30_RUS
E 3.24711e+007
DENSITY 24.525
POISSON 0.2
ALPHA 1e-005
END DEFINE MATERIAL
*
MEMBER PROPERTY EUROPEAN
2 TO 4 6 TO 8 10 TO 12 14 TO 16 225 TO 232 TABLE ST HE400A
MEMBER PROPERTY EUROPEAN
1 5 9 13 17 21 25 29 PRIS YD 0.7 ZD 0.5
MEMBER PROPERTY EUROPEAN
18 TO 20 22 TO 24 26 TO 28 30 TO 32 TABLE ST HE300A
MEMBER PROPERTY EUROPEAN
36 TO 41 45 TO 58 67 TO 76 107 TO 114 123 TO 132 161 TO 164 169 TO 172 179 -
180 TO 184 201 TO 204 209 TO 212 219 TO 224 233 TO 240 TABLE ST IPE220
MEMBER PROPERTY EUROPEAN
59 TO 66 115 TO 122 TABLE ST UPN100
MEMBER PROPERTY EUROPEAN
33 TO 35 42 TO 44 89 TO 91 98 TO 100 241 TO 248 257 TO 264 TABLE ST IPE300
MEMBER PROPERTY EUROPEAN
92 TO 97 101 TO 106 249 TO 256 TABLE ST IPE360
MEMBER PROPERTY EUROPEAN
145 TO 160 173 TO 178 185 TO 200 213 TO 218 TABLE ST IPE400
MEMBER PROPERTY EUROPEAN
*
77 TO 88 133 TO 144 165 TO 168 205 TO 207 -
208 PRIS ROUND STA 0.0891 END 0.0891 THI 0.0042
*
265 TO 268 273 TO 276 281 TO 288 293 TO 295 -
296 PRIS ROUND STA 0.1398 END 0.1398 THI 0.0045
*
269 TO 272 277 TO 280 289 TO 292 297 TO 299 -
300 PRIS ROUND STA 0.1652 END 0.1652 THI 0.005
*
MEMBER RELEASE
33 START MX MY MZ
35 END MY MZ
36 START MX MY MZ
38 END MY MZ
39 START MX MY MZ
41 END MY MZ
42 START MX MY MZ
44 END MY MZ
45 START MX MY MZ
47 END MY MZ
48 START MX MY MZ
50 END MY MZ
51 START MX MY MZ
52 END MY MZ
53 START MX MY MZ
54 END MY MZ
55 START MX MY MZ
56 END MY MZ
57 START MX MY MZ
58 END MY MZ
59 START MX MY MZ
59 END MY MZ
60 START MX MY MZ
60 END MY MZ
61 START MX MY MZ
61 END MY MZ
62 START MX MY MZ
62 END MY MZ
63 START MX MY MZ
63 END MY MZ
64 START MX MY MZ
64 END MY MZ
65 START MX MY MZ
65 END MY MZ
66 START MX MY MZ
66 END MY MZ
67 START MX MY MZ
67 END MY MZ
68 START MX MY MZ
68 END MY MZ
# ... 260 like lines cut
CONSTANTS
BETA 270 MEMB 1 TO 32 225 TO 232
MATERIAL 1:STEEL_RUS MEMB 2 TO 4 6 TO 8 10 TO 12 14 TO 16 18 TO 20 22 TO 24 -
26 TO 28 30 TO 300
MATERIAL 2:B30_RUS MEMB 1 5 9 13 17 21 25 29
*
CUT OFF MODE SHAPE 40
LOAD 1 LOADTYPE None  TITLE SEISMIC
* SELF WEIGHT
SELFWEIGHT X 1 
SELFWEIGHT Y 1 
SELFWEIGHT Z 1 
* LIVE LOAD
MEMBER LOAD
*
70 UNI GX 2.5
71 UNI GX 2.5
74 UNI GX 2.5
75 UNI GX 2.5
126 UNI GX 2.5
127 UNI GX 2.5
130 UNI GX 2.5
131 UNI GX 2.5
151 UNI GX 2.5
152 UNI GX 2.5
153 UNI GX 2.5
154 UNI GX 2.5
155 UNI GX 2.5
156 UNI GX 2.5
179 UNI GX 2.5
180 UNI GX 2.5
181 UNI GX 2.5
182 UNI GX 2.5
183 UNI GX 2.5
184 UNI GX 2.5
# ... 28 like lines cut
*
70 UNI GY 2.5
71 UNI GY 2.5
74 UNI GY 2.5
75 UNI GY 2.5
126 UNI GY 2.5
127 UNI GY 2.5
130 UNI GY 2.5
131 UNI GY 2.5
151 UNI GY 2.5
152 UNI GY 2.5
153 UNI GY 2.5
154 UNI GY 2.5
155 UNI GY 2.5
156 UNI GY 2.5
179 UNI GY 2.5
180 UNI GY 2.5
181 UNI GY 2.5
182 UNI GY 2.5
183 UNI GY 2.5
184 UNI GY 2.5
# ... 28 like lines cut
*
70 UNI GZ 2.5
71 UNI GZ 2.5
74 UNI GZ 2.5
75 UNI GZ 2.5
126 UNI GZ 2.5
127 UNI GZ 2.5
130 UNI GZ 2.5
131 UNI GZ 2.5
151 UNI GZ 2.5
152 UNI GZ 2.5
153 UNI GZ 2.5
154 UNI GZ 2.5
155 UNI GZ 2.5
156 UNI GZ 2.5
179 UNI GZ 2.5
180 UNI GZ 2.5
181 UNI GZ 2.5
182 UNI GZ 2.5
183 UNI GZ 2.5
184 UNI GZ 2.5
# ... 28 like lines cut
*
69 UNI GX 5
72 UNI GX 5
73 UNI GX 5
76 UNI GX 5
125 UNI GX 5
128 UNI GX 5
129 UNI GX 5
132 UNI GX 5
161 UNI GX 5
162 UNI GX 5
163 UNI GX 5
164 UNI GX 5
201 UNI GX 5
202 UNI GX 5
203 UNI GX 5
204 UNI GX 5
*
69 UNI GY 5
72 UNI GY 5
73 UNI GY 5
76 UNI GY 5
125 UNI GY 5
128 UNI GY 5
129 UNI GY 5
132 UNI GY 5
161 UNI GY 5
162 UNI GY 5
163 UNI GY 5
164 UNI GY 5
201 UNI GY 5
202 UNI GY 5
203 UNI GY 5
204 UNI GY 5
*
69 UNI GZ 5
72 UNI GZ 5
73 UNI GZ 5
76 UNI GZ 5
125 UNI GZ 5
128 UNI GZ 5
129 UNI GZ 5
132 UNI GZ 5
161 UNI GZ 5
162 UNI GZ 5
163 UNI GZ 5
164 UNI GZ 5
201 UNI GZ 5
202 UNI GZ 5
203 UNI GZ 5
204 UNI GZ 5
* WU
MEMBER LOAD
*
233 UNI GX 4.5
234 UNI GX 4.5
235 UNI GX 4.5
236 UNI GX 4.5
241 UNI GX 4.5
242 UNI GX 4.5
243 UNI GX 4.5
244 UNI GX 4.5
249 UNI GX 4.5
250 UNI GX 4.5
251 UNI GX 4.5
252 UNI GX 4.5
257 UNI GX 4.5
258 UNI GX 4.5
259 UNI GX 4.5
260 UNI GX 4.5
*
233 UNI GY 4.5
234 UNI GY 4.5
235 UNI GY 4.5
236 UNI GY 4.5
241 UNI GY 4.5
242 UNI GY 4.5
243 UNI GY 4.5
244 UNI GY 4.5
249 UNI GY 4.5
250 UNI GY 4.5
251 UNI GY 4.5
252 UNI GY 4.5
257 UNI GY 4.5
258 UNI GY 4.5
259 UNI GY 4.5
260 UNI GY 4.5
*
233 UNI GZ 4.5
234 UNI GZ 4.5
235 UNI GZ 4.5
236 UNI GZ 4.5
241 UNI GZ 4.5
242 UNI GZ 4.5
243 UNI GZ 4.5
244 UNI GZ 4.5
249 UNI GZ 4.5
250 UNI GZ 4.5
251 UNI GZ 4.5
252 UNI GZ 4.5
257 UNI GZ 4.5
258 UNI GZ 4.5
259 UNI GZ 4.5
260 UNI GZ 4.5
*
51 UNI GX 9
52 UNI GX 9
53 UNI GX 9
54 UNI GX 9
55 UNI GX 9
56 UNI GX 9
57 UNI GX 9
58 UNI GX 9
107 UNI GX 9
108 UNI GX 9
109 UNI GX 9
110 UNI GX 9
111 UNI GX 9
112 UNI GX 9
113 UNI GX 9
114 UNI GX 9
237 UNI GX 9
238 UNI GX 9
239 UNI GX 9
240 UNI GX 9
# ... 4 like lines cut
*
51 UNI GY 9
52 UNI GY 9
53 UNI GY 9
54 UNI GY 9
55 UNI GY 9
56 UNI GY 9
57 UNI GY 9
58 UNI GY 9
107 UNI GY 9
108 UNI GY 9
109 UNI GY 9
110 UNI GY 9
111 UNI GY 9
112 UNI GY 9
113 UNI GY 9
114 UNI GY 9
237 UNI GY 9
238 UNI GY 9
239 UNI GY 9
240 UNI GY 9
# ... 4 like lines cut
*
51 UNI GZ 9
52 UNI GZ 9
53 UNI GZ 9
54 UNI GZ 9
55 UNI GZ 9
56 UNI GZ 9
57 UNI GZ 9
58 UNI GZ 9
107 UNI GZ 9
108 UNI GZ 9
109 UNI GZ 9
110 UNI GZ 9
111 UNI GZ 9
112 UNI GZ 9
113 UNI GZ 9
114 UNI GZ 9
237 UNI GZ 9
238 UNI GZ 9
239 UNI GZ 9
240 UNI GZ 9
# ... 4 like lines cut
* WO
MEMBER LOAD
169 CON GX 100 0.5
170 CON GX 100 0.5
171 CON GX 100 0.5
172 CON GX 100 0.5
209 CON GX 100 0.5
210 CON GX 100 0.5
211 CON GX 100 0.5
212 CON GX 100 0.5
*
169 CON GY 100 0.5
170 CON GY 100 0.5
171 CON GY 100 0.5
172 CON GY 100 0.5
209 CON GY 100 0.5
210 CON GY 100 0.5
211 CON GY 100 0.5
212 CON GY 100 0.5
*
169 CON GZ 100 0.5
170 CON GZ 100 0.5
171 CON GZ 100 0.5
172 CON GZ 100 0.5
209 CON GZ 100 0.5
210 CON GZ 100 0.5
211 CON GZ 100 0.5
212 CON GZ 100 0.5
*
SPECTRUM SRSS X 1 ACC SCALE 0.132 DAMP 0.03 LIN IMR 40 STARTCASE 100
0 3.924; 0.05 5.69; 0.1 7.161; 0.15 8.142; 0.2 8.633; 0.25 8.927; 0.3 9.025;
0.35 9.123; 0.4 9.025; 0.45 8.927; 0.5 8.731; 0.55 8.437; 0.6 8.24; 0.65 7.946;
0.7 7.652; 0.75 7.456; 0.8 7.161; 0.85 6.867; 0.9 6.573; 0.95 6.278;
1 6.082; 1.05 5.788; 1.1 5.592; 1.15 5.297; 1.2 5.101; 1.25 4.905; 1.3 4.611;
1.35 4.415; 1.4 4.316; 1.45 4.12; 1.5 3.924; 1.55 3.728; 1.6 3.63; 1.65 3.434;
1.7 3.335; 1.75 3.237; 1.8 3.139; 1.85 2.943; 1.9 2.845; 1.95 2.747;
2 2.649;
PERFORM ANALYSIS PRINT MODE SHAPES
*
CHANGE
*
LOAD 10 LOADTYPE None
REPEAT LOAD
100 1
LOAD 11 LOADTYPE None
REPEAT LOAD
101 1
LOAD 12 LOADTYPE None
REPEAT LOAD
102 1
LOAD 13 LOADTYPE None
REPEAT LOAD
103 1
LOAD 14 LOADTYPE None
REPEAT LOAD
104 1
LOAD 15 LOADTYPE None
REPEAT LOAD
105 1
LOAD 16 LOADTYPE None
REPEAT LOAD
106 1
LOAD 17 LOADTYPE None
REPEAT LOAD
107 1
LOAD 18 LOADTYPE None
REPEAT LOAD
108 1
LOAD 19 LOADTYPE None
REPEAT LOAD
109 1

LOAD 20 LOADTYPE None
REPEAT LOAD
110 1
LOAD 21 LOADTYPE None
REPEAT LOAD
111 1
LOAD 22 LOADTYPE None
REPEAT LOAD
112 1
LOAD 23 LOADTYPE None
REPEAT LOAD
113 1
LOAD 24 LOADTYPE None
REPEAT LOAD
114 1
LOAD 25 LOADTYPE None
REPEAT LOAD
115 1
LOAD 26 LOADTYPE None
REPEAT LOAD
116 1
LOAD 27 LOADTYPE None
REPEAT LOAD
117 1
LOAD 28 LOADTYPE None
REPEAT LOAD
118 1
LOAD 29 LOADTYPE None
REPEAT LOAD
119 1

LOAD 30 LOADTYPE None
REPEAT LOAD
120 1
LOAD 31 LOADTYPE None
REPEAT LOAD
121 1
LOAD 32 LOADTYPE None
REPEAT LOAD
122 1
LOAD 33 LOADTYPE None
REPEAT LOAD
123 1
LOAD 34 LOADTYPE None
REPEAT LOAD
124 1
LOAD 35 LOADTYPE None
REPEAT LOAD
125 1
LOAD 36 LOADTYPE None
REPEAT LOAD
126 1
LOAD 37 LOADTYPE None
REPEAT LOAD
127 1
LOAD 38 LOADTYPE None
REPEAT LOAD
128 1
LOAD 39 LOADTYPE None
REPEAT LOAD
129 1

LOAD 40 LOADTYPE None
REPEAT LOAD
130 1
LOAD 41 LOADTYPE None
REPEAT LOAD
131 1
LOAD 42 LOADTYPE None
REPEAT LOAD
132 1
LOAD 43 LOADTYPE None
REPEAT LOAD
133 1
LOAD 44 LOADTYPE None
REPEAT LOAD
134 1
LOAD 45 LOADTYPE None
REPEAT LOAD
135 1
LOAD 46 LOADTYPE None
REPEAT LOAD
136 1
LOAD 47 LOADTYPE None
REPEAT LOAD
137 1
LOAD 48 LOADTYPE None
REPEAT LOAD
138 1
LOAD 49 LOADTYPE None
REPEAT LOAD
139 1


*
PERFORM ANALYSIS
*
PRINT MEMBER INFORMATION
PRINT MEMBER FORCES ALL
FINISH
